
**** 05/19/23 12:32:02 **** PSpice 22.1.0 (6 October 2022) **** ID# 0 ********

 ** Profile: "SCHEMATIC1-sim1"  [ d:\cad\deadline 3\proiect cad-pspicefiles\schematic1\sim1.sim ] 


 ****     CIRCUIT DESCRIPTION


******************************************************************************




** Creating circuit file "sim1.cir" 
** WARNING: THIS AUTOMATICALLY GENERATED FILE MAY BE OVERWRITTEN BY SUBSEQUENT SIMULATIONS

*Libraries: 
* Profile Libraries :
* Local Libraries :
* From [PSPICE NETLIST] section of C:\Users\carin\AppData\Roaming\SPB_Data\cdssetup\OrCAD_PSpice\22.1.0\PSpice.ini file:
.lib "nom.lib" 

*Analysis directives: 
.TRAN  0 1ms 0 0.1m 
.WCASE TRAN V([OUT]) YMAX VARY BOTH  HI 
.OPTIONS ADVCONV
.PROBE64 V(alias(*)) I(alias(*)) W(alias(*)) D(alias(*)) NOISE(alias(*)) 
.INC "..\SCHEMATIC1.net" 



**** INCLUDING SCHEMATIC1.net ****
* source PROIECT CAD
V_V2         0 -VPS 15V
V_V3         +VPS 0 15V
R_R4         N27593 N15178 R_R4 1.5K TC=0,0 
.model        R_R4 RES R=1 DEV=5% TC1=0 TC2=0
R_R6         N15025 MID R_R6 10K TC=0,0 
.model        R_R6 RES R=1 DEV=2% TC1=0 TC2=0
C_C2         0 N15178 C_C2 4.7nF  TC=0,0 
.model        C_C2 CAP C=1 DEV=2% TC1=0 TC2=0 VC1=0 VC2=0
D_D1         N16407 N16306 D1N4148 
D_D2         N16306 N16344 D1N4148 
R_R9         N16407 +VPS R_R9 1k TC=0,0 
.model        R_R9 RES R=1 DEV=2% TC1=0 TC2=0
R_R10         -VPS N16344 R_R10 1k TC=0,0 
.model        R_R10 RES R=1 DEV=2% TC1=0 TC2=0
Q_Q1         +VPS N16407 OUT Q2N3055
Q_Q2         -VPS N16344 OUT TIP30C
R_Rout         OUT 0 R_Rout 30 TC=0,0 
.model        R_Rout RES R=1 DEV=1% TC1=0 TC2=0
R_R5         0 N15025 R_R5 1k TC=0,0 
.model        R_R5 RES R=1 DEV=2% TC1=0 TC2=0
R_R2         0 N27455 R_R2 5K TC=0,0 
.model        R_R2 RES R=1 DEV=2% TC1=0 TC2=0
R_R3         N27455 N27593 R_R3 50K TC=0,0 
.model        R_R3 RES R=1 DEV=2% TC1=0 TC2=0
C_C1         IN N28627 C_C1 2nF  TC=0,0 
.model        C_C1 CAP C=1 DEV=2% TC1=0 TC2=0 VC1=0 VC2=0
R_R1         0 N28627 R_R1 10K TC=0,0 
.model        R_R1 RES R=1 DEV=2% TC1=0 TC2=0
R_R7         0 N30286 R_R7 1K  
.model        r_R7 RES R=1 DEV=1%
V_V1         IN 0  AC 300u
+SIN 0 300u 16000 0 0 0
X_U4         N16109 N16306 +VPS -VPS N16306 TL071/301/TI
X_U1         N28627 N27455 +VPS -VPS N27593 LT1028/LT
X_U2         N15178 N15025 +VPS -VPS MID LT1028/LT
X_U3         MID N30286 +VPS -VPS N16109 LT1028/LT
X_POT1         N45122 N45122 N16109 POT PARAMS: SET={set} VALUE=227K
R_R8         N30286 N45122  110K TC=0,0 
.PARAM  set=1

**** RESUMING sim1.cir ****
.END

**** 05/19/23 12:32:02 **** PSpice 22.1.0 (6 October 2022) **** ID# 0 ********

 ** Profile: "SCHEMATIC1-sim1"  [ d:\cad\deadline 3\proiect cad-pspicefiles\schematic1\sim1.sim ] 


 ****     Diode MODEL PARAMETERS


******************************************************************************




               D1N4148         X_U4.DX         X_U1.DM1        X_U1.DM2        
          IS    2.682000E-09  800.000000E-18  100.000000E-21  800.000000E-18 
           N    1.836                                                        
         ISR    1.565000E-09                                                 
         IKF     .04417                                                      
          BV  100                                                            
         IBV  100.000000E-06                                                 
          RS     .5664                                                       
          TT   11.540000E-09                                                 
         CJO    4.000000E-12                                                 
          VJ     .5                                                          
           M     .3333                                                       


               X_U1.DM3        X_U2.DM1        X_U2.DM2        X_U2.DM3        
          IS   10.000000E-21  100.000000E-21  800.000000E-18   10.000000E-21 


               X_U3.DM1        X_U3.DM2        X_U3.DM3        
          IS  100.000000E-21  800.000000E-18   10.000000E-21 


**** 05/19/23 12:32:02 **** PSpice 22.1.0 (6 October 2022) **** ID# 0 ********

 ** Profile: "SCHEMATIC1-sim1"  [ d:\cad\deadline 3\proiect cad-pspicefiles\schematic1\sim1.sim ] 


 ****     BJT MODEL PARAMETERS


******************************************************************************




               Q2N3055         TIP30C          X_U1.QM1        X_U1.QM2        
               NPN             PNP             NPN             NPN             
       LEVEL    1               1               1               1            
          IS  974.400000E-15   51.230000E-15  800.000000E-18  800.620000E-18 
          BF   99.49          434.1             5.769200E+03   10.714000E+03 
          NF    1               1               1               1            
         VAF   50             100                                            
         IKF    4.029            .3883                                       
         ISE  902.500000E-12   51.230000E-15                                 
          NE    1.941           1.22                                         
          BR    2.949          55.47            1               1            
          NR    1               1               1               1            
         IKR                   10.87                                         
         ISC                   51.230000E-15                                 
          NC                    1.205                                        
          NK                     .5544                                       
         ISS    0               0               0               0            
          RB     .1              .1                                          
          RE    0               0               0               0            
          RC     .1              .3443          0               0            
         CJE  569.100000E-12  179.900000E-12    0               0            
         VJE     .75             .75             .75             .75         
         MJE     .3333           .4294                                       
         CJC  276.000000E-12  136.900000E-12    0               0            
         VJC     .75             .75             .75             .75         
         MJC     .3333           .3155           .33             .33         
        XCJC    1               1               1               1            
         CJS    0               0               0               0            
         VJS     .75             .75             .75             .75         
          TF   39.110000E-09   13.050000E-09                                 
         XTF    2               1.573                                        
         VTF   10              10                                            
         ITF   20               6.85                                         
          TR  971.700000E-09   20.250000E-09                                 
         XTB    1.5             2.2                                          
          KF    0               0               0               0            
          AF    1               1               1               1            
          CN    2.42            2.2             2.42            2.42         
           D     .87             .52             .87             .87         


               X_U2.QM1        X_U2.QM2        X_U3.QM1        X_U3.QM2        
               NPN             NPN             NPN             NPN             
       LEVEL    1               1               1               1            
          IS  800.000000E-18  800.620000E-18  800.000000E-18  800.620000E-18 
          BF    5.769200E+03   10.714000E+03    5.769200E+03   10.714000E+03 
          NF    1               1               1               1            
          BR    1               1               1               1            
          NR    1               1               1               1            
         ISS    0               0               0               0            
          RE    0               0               0               0            
          RC    0               0               0               0            
         CJE    0               0               0               0            
         VJE     .75             .75             .75             .75         
         CJC    0               0               0               0            
         VJC     .75             .75             .75             .75         
         MJC     .33             .33             .33             .33         
        XCJC    1               1               1               1            
         CJS    0               0               0               0            
         VJS     .75             .75             .75             .75         
          KF    0               0               0               0            
          AF    1               1               1               1            
          CN    2.42            2.42            2.42            2.42         
           D     .87             .87             .87             .87         


**** 05/19/23 12:32:02 **** PSpice 22.1.0 (6 October 2022) **** ID# 0 ********

 ** Profile: "SCHEMATIC1-sim1"  [ d:\cad\deadline 3\proiect cad-pspicefiles\schematic1\sim1.sim ] 


 ****     Junction FET MODEL PARAMETERS


******************************************************************************




               X_U4.JX         
               PJF             
         VTO   -1            
        BETA  270.100000E-06 
          IS   15.000000E-12 


**** 05/19/23 12:32:02 **** PSpice 22.1.0 (6 October 2022) **** ID# 0 ********

 ** Profile: "SCHEMATIC1-sim1"  [ d:\cad\deadline 3\proiect cad-pspicefiles\schematic1\sim1.sim ] 


 ****     Resistor MODEL PARAMETERS


******************************************************************************




               R_R4            R_R6            R_R9            R_R10           
           R    1               1               1               1            


               R_Rout          R_R5            R_R2            R_R3            
           R    1               1               1               1            


               R_R1            R_R7            
           R    1               1            


**** 05/19/23 12:32:02 **** PSpice 22.1.0 (6 October 2022) **** ID# 0 ********

 ** Profile: "SCHEMATIC1-sim1"  [ d:\cad\deadline 3\proiect cad-pspicefiles\schematic1\sim1.sim ] 


 ****     Capacitor MODEL PARAMETERS


******************************************************************************




               C_C2            C_C1            
           C    1               1            


**** 05/19/23 12:32:02 **** PSpice 22.1.0 (6 October 2022) **** ID# 0 ********

 ** Profile: "SCHEMATIC1-sim1"  [ d:\cad\deadline 3\proiect cad-pspicefiles\schematic1\sim1.sim ] 


 ****     INITIAL TRANSIENT SOLUTION       TEMPERATURE =   27.000 DEG C

                      SENSITIVITY NOMINAL

******************************************************************************



 NODE   VOLTAGE     NODE   VOLTAGE     NODE   VOLTAGE     NODE   VOLTAGE


(   IN)    0.0000  (  MID) 441.4E-06  (  OUT)     .2153  ( +VPS)   15.0000      

( -VPS)  -15.0000  (N15025) 3.918E-06 (N15178)-15.67E-06 (N16109)     .1692     

(N16306)     .1693 (N16344)    -.5588 (N16407)     .8962 (N27455)-179.8E-06     

(N27593) 14.19E-06 (N28627)-199.4E-06 (N30286) 461.0E-06 (N45122)     .0556     

(X_U1.1) 14.21E-06 (X_U1.8)-760.1E-12 (X_U2.1) 441.5E-06 (X_U2.8)-21.15E-09     

(X_U3.1)     .1692 (X_U3.8)-8.016E-06 (X_U4.6)-32.68E-06 (X_U4.7)     .1999     

(X_U4.8)     .1999 (X_U4.9)    0.0000 (X_U1.10)    -.6819                       

(X_U1.11)    -.6819                   (X_U1.12)    -.6720                       

(X_U1.13)    3.6394                   (X_U1.14)   -3.6394                       

(X_U1.18) 648.9E-09                   (X_U1.20) 1.298E-15                       

(X_U1.60)  -15.0000                   (X_U1.70)   15.0000                       

(X_U1.80)   14.9840                   (X_U1.90)   14.9840                       

(X_U1.91)   14.9840                   (X_U1.98)-760.1E-12                       

(X_U2.10)    -.6818                   (X_U2.11)    -.6818                       

(X_U2.12)    -.6719                   (X_U2.13)    3.6398                       

(X_U2.14)   -3.6390                   (X_U2.18) 1.783E-06                       

(X_U2.20) 3.566E-15                   (X_U2.60)  -15.0000                       

(X_U2.70)   15.0000                   (X_U2.80)   14.9840                       

(X_U2.90)   14.9840                   (X_U2.91)   14.9840                       

(X_U2.98)-21.15E-09                   (X_U3.10)    -.6813                       

(X_U3.11)    -.6813                   (X_U3.12)    -.6714                       

(X_U3.13)    3.8086                   (X_U3.14)   -3.4702                       

(X_U3.18) 13.97E-06                   (X_U3.20) 27.95E-15                       

(X_U3.60)  -15.0000                   (X_U3.70)   15.0000                       

(X_U3.80)   14.9840                   (X_U3.90)   14.9840                       

(X_U3.91)   14.9840                   (X_U3.98)-8.016E-06                       

(X_U4.10)    -.2296                   (X_U4.11)  -14.6550                       

(X_U4.12)  -14.6550                   (X_U4.53)   12.8000                       

(X_U4.54)  -12.8000                   (X_U4.90)     .2043                       

(X_U4.91)   25.0000                   (X_U4.92)  -25.0000                       

(X_U4.99)    0.0000                   (X_U1.104)-189.6E-06                      

(X_U1.105)-189.6E-06                  (X_U1.131)   15.0000                      

(X_U1.141)  -15.0000                  (X_U2.104)-5.873E-06                      

(X_U2.105)-5.873E-06                  (X_U2.131)   15.0000                      

(X_U2.141)  -15.0000                  (X_U3.104) 451.2E-06                      

(X_U3.105) 451.2E-06                  (X_U3.131)   15.0000                      

(X_U3.141)  -15.0000                  




    VOLTAGE SOURCE CURRENTS
    NAME         CURRENT

    V_V2        -3.599E-01
    V_V3        -3.669E-01
    V_V1         0.000E+00
    X_U4.VB     -3.268E-10
    X_U4.VC      1.263E-11
    X_U4.VE      1.297E-11
    X_U4.VLIM    2.043E-04
    X_U4.VLP    -2.480E-11
    X_U4.VLN    -2.521E-11
    X_U1.VC      1.136E-11
    X_U1.VE      1.136E-11
    X_U2.VC      1.136E-11
    X_U2.VE      1.136E-11
    X_U3.VC      1.119E-11
    X_U3.VE      1.153E-11

    TOTAL POWER DISSIPATION   1.09E+01  WATTS

 NODE   VOLTAGE     NODE   VOLTAGE     NODE   VOLTAGE     NODE   VOLTAGE


(   IN)    0.0000  (  MID) 441.0E-06  (  OUT)     .2152  ( +VPS)   15.0000      

( -VPS)  -15.0000  (N15025) 3.874E-06 (N15178)-15.71E-06 (N16109)     .1691     

(N16306)     .1691 (N16344)    -.5590 (N16407)     .8961 (N27455)-179.8E-06     

(N27593) 14.19E-06 (N28627)-199.4E-06 (N30286) 460.5E-06 (N45122)     .0555     

(X_U1.1) 14.22E-06 (X_U1.8)-762.4E-12 (X_U2.1) 441.0E-06 (X_U2.8)-21.10E-09     

(X_U3.1)     .1691 (X_U3.8)-8.009E-06 (X_U4.6)-32.64E-06 (X_U4.7)     .1997     

(X_U4.8)     .1997 (X_U4.9)    0.0000 (X_U1.10)    -.6819                       

(X_U1.11)    -.6819                   (X_U1.12)    -.6720                       

(X_U1.13)    3.6394                   (X_U1.14)   -3.6394                       

(X_U1.18) 664.7E-09                   (X_U1.20) 1.329E-15                       

(X_U1.60)  -15.0000                   (X_U1.70)   15.0000                       

(X_U1.80)   14.9840                   (X_U1.90)   14.9840                       

(X_U1.91)   14.9840                   (X_U1.98)-762.4E-12                       

(X_U2.10)    -.6818                   (X_U2.11)    -.6818                       

(X_U2.12)    -.6719                   (X_U2.13)    3.6398                       

(X_U2.14)   -3.6390                   (X_U2.18) 1.591E-06                       

(X_U2.20) 3.182E-15                   (X_U2.60)  -15.0000                       

(X_U2.70)   15.0000                   (X_U2.80)   14.9840                       

(X_U2.90)   14.9840                   (X_U2.91)   14.9840                       

(X_U2.98)-21.10E-09                   (X_U3.10)    -.6813                       

(X_U3.11)    -.6813                   (X_U3.12)    -.6714                       

(X_U3.13)    3.8085                   (X_U3.14)   -3.4703                       

(X_U3.18) 13.98E-06                   (X_U3.20) 27.96E-15                       

(X_U3.60)  -15.0000                   (X_U3.70)   15.0000                       

(X_U3.80)   14.9840                   (X_U3.90)   14.9840                       

(X_U3.91)   14.9840                   (X_U3.98)-8.009E-06                       

(X_U4.10)    -.2298                   (X_U4.11)  -14.6550                       

(X_U4.12)  -14.6550                   (X_U4.53)   12.8000                       

(X_U4.54)  -12.8000                   (X_U4.90)     .2039                       

(X_U4.91)   25.0000                   (X_U4.92)  -25.0000                       

(X_U4.99)    0.0000                   (X_U1.104)-189.6E-06                      

(X_U1.105)-189.6E-06                  (X_U1.131)   15.0000                      

(X_U1.141)  -15.0000                  (X_U2.104)-5.917E-06                      

(X_U2.105)-5.917E-06                  (X_U2.131)   15.0000                      

(X_U2.141)  -15.0000                  (X_U3.104) 450.7E-06                      

(X_U3.105) 450.7E-06                  (X_U3.131)   15.0000                      

(X_U3.141)  -15.0000                  




    VOLTAGE SOURCE CURRENTS
    NAME         CURRENT

    V_V2        -3.599E-01
    V_V3        -3.669E-01
    V_V1         0.000E+00
    X_U4.VB     -3.264E-10
    X_U4.VC      1.263E-11
    X_U4.VE      1.297E-11
    X_U4.VLIM    2.039E-04
    X_U4.VLP    -2.480E-11
    X_U4.VLN    -2.520E-11
    X_U1.VC      1.136E-11
    X_U1.VE      1.136E-11
    X_U2.VC      1.136E-11
    X_U2.VE      1.136E-11
    X_U3.VC      1.119E-11
    X_U3.VE      1.153E-11

    TOTAL POWER DISSIPATION   1.09E+01  WATTS

 NODE   VOLTAGE     NODE   VOLTAGE     NODE   VOLTAGE     NODE   VOLTAGE


(   IN)    0.0000  (  MID) 441.0E-06  (  OUT)     .2152  ( +VPS)   15.0000      

( -VPS)  -15.0000  (N15025) 3.874E-06 (N15178)-15.71E-06 (N16109)     .1691     

(N16306)     .1691 (N16344)    -.5590 (N16407)     .8961 (N27455)-179.8E-06     

(N27593) 14.19E-06 (N28627)-199.4E-06 (N30286) 460.5E-06 (N45122)     .0555     

(X_U1.1) 14.22E-06 (X_U1.8)-762.4E-12 (X_U2.1) 441.0E-06 (X_U2.8)-21.13E-09     

(X_U3.1)     .1691 (X_U3.8)-8.009E-06 (X_U4.6)-32.64E-06 (X_U4.7)     .1997     

(X_U4.8)     .1997 (X_U4.9)    0.0000 (X_U1.10)    -.6819                       

(X_U1.11)    -.6819                   (X_U1.12)    -.6720                       

(X_U1.13)    3.6394                   (X_U1.14)   -3.6394                       

(X_U1.18) 664.7E-09                   (X_U1.20) 1.329E-15                       

(X_U1.60)  -15.0000                   (X_U1.70)   15.0000                       

(X_U1.80)   14.9840                   (X_U1.90)   14.9840                       

(X_U1.91)   14.9840                   (X_U1.98)-762.4E-12                       

(X_U2.10)    -.6818                   (X_U2.11)    -.6818                       

(X_U2.12)    -.6719                   (X_U2.13)    3.6398                       

(X_U2.14)   -3.6390                   (X_U2.18) 1.853E-06                       

(X_U2.20) 3.705E-15                   (X_U2.60)  -15.0000                       

(X_U2.70)   15.0000                   (X_U2.80)   14.9840                       

(X_U2.90)   14.9840                   (X_U2.91)   14.9840                       

(X_U2.98)-21.13E-09                   (X_U3.10)    -.6813                       

(X_U3.11)    -.6813                   (X_U3.12)    -.6714                       

(X_U3.13)    3.8085                   (X_U3.14)   -3.4703                       

(X_U3.18) 13.97E-06                   (X_U3.20) 27.93E-15                       

(X_U3.60)  -15.0000                   (X_U3.70)   15.0000                       

(X_U3.80)   14.9840                   (X_U3.90)   14.9840                       

(X_U3.91)   14.9840                   (X_U3.98)-8.009E-06                       

(X_U4.10)    -.2298                   (X_U4.11)  -14.6550                       

(X_U4.12)  -14.6550                   (X_U4.53)   12.8000                       

(X_U4.54)  -12.8000                   (X_U4.90)     .2039                       

(X_U4.91)   25.0000                   (X_U4.92)  -25.0000                       

(X_U4.99)    0.0000                   (X_U1.104)-189.6E-06                      

(X_U1.105)-189.6E-06                  (X_U1.131)   15.0000                      

(X_U1.141)  -15.0000                  (X_U2.104)-5.917E-06                      

(X_U2.105)-5.917E-06                  (X_U2.131)   15.0000                      

(X_U2.141)  -15.0000                  (X_U3.104) 450.7E-06                      

(X_U3.105) 450.7E-06                  (X_U3.131)   15.0000                      

(X_U3.141)  -15.0000                  




    VOLTAGE SOURCE CURRENTS
    NAME         CURRENT

    V_V2        -3.599E-01
    V_V3        -3.669E-01
    V_V1         0.000E+00
    X_U4.VB     -3.264E-10
    X_U4.VC      1.263E-11
    X_U4.VE      1.297E-11
    X_U4.VLIM    2.039E-04
    X_U4.VLP    -2.480E-11
    X_U4.VLN    -2.520E-11
    X_U1.VC      1.136E-11
    X_U1.VE      1.136E-11
    X_U2.VC      1.136E-11
    X_U2.VE      1.136E-11
    X_U3.VC      1.119E-11
    X_U3.VE      1.153E-11

    TOTAL POWER DISSIPATION   1.09E+01  WATTS

 NODE   VOLTAGE     NODE   VOLTAGE     NODE   VOLTAGE     NODE   VOLTAGE


(   IN)    0.0000  (  MID) 440.6E-06  (  OUT)     .2151  ( +VPS)   15.0000      

( -VPS)  -15.0000  (N15025) 3.845E-06 (N15178)-15.74E-06 (N16109)     .1690     

(N16306)     .1690 (N16344)    -.5591 (N16407)     .8959 (N27455)-179.8E-06     

(N27593) 14.19E-06 (N28627)-199.4E-06 (N30286) 460.2E-06 (N45122)     .0555     

(X_U1.1) 14.22E-06 (X_U1.8)-762.4E-12 (X_U2.1) 440.7E-06 (X_U2.8)-21.13E-09     

(X_U3.1)     .1690 (X_U3.8)-8.003E-06 (X_U4.6)-32.61E-06 (X_U4.7)     .1995     

(X_U4.8)     .1995 (X_U4.9)    0.0000 (X_U1.10)    -.6819                       

(X_U1.11)    -.6819                   (X_U1.12)    -.6720                       

(X_U1.13)    3.6394                   (X_U1.14)   -3.6394                       

(X_U1.18) 664.7E-09                   (X_U1.20) 1.329E-15                       

(X_U1.60)  -15.0000                   (X_U1.70)   15.0000                       

(X_U1.80)   14.9840                   (X_U1.90)   14.9840                       

(X_U1.91)   14.9840                   (X_U1.98)-762.4E-12                       

(X_U2.10)    -.6818                   (X_U2.11)    -.6818                       

(X_U2.12)    -.6719                   (X_U2.13)    3.6398                       

(X_U2.14)   -3.6390                   (X_U2.18) 1.956E-06                       

(X_U2.20) 3.911E-15                   (X_U2.60)  -15.0000                       

(X_U2.70)   15.0000                   (X_U2.80)   14.9840                       

(X_U2.90)   14.9840                   (X_U2.91)   14.9840                       

(X_U2.98)-21.13E-09                   (X_U3.10)    -.6813                       

(X_U3.11)    -.6813                   (X_U3.12)    -.6714                       

(X_U3.13)    3.8084                   (X_U3.14)   -3.4704                       

(X_U3.18) 13.96E-06                   (X_U3.20) 27.91E-15                       

(X_U3.60)  -15.0000                   (X_U3.70)   15.0000                       

(X_U3.80)   14.9840                   (X_U3.90)   14.9840                       

(X_U3.91)   14.9840                   (X_U3.98)-8.003E-06                       

(X_U4.10)    -.2299                   (X_U4.11)  -14.6550                       

(X_U4.12)  -14.6550                   (X_U4.53)   12.8000                       

(X_U4.54)  -12.8000                   (X_U4.90)     .2036                       

(X_U4.91)   25.0000                   (X_U4.92)  -25.0000                       

(X_U4.99)    0.0000                   (X_U1.104)-189.6E-06                      

(X_U1.105)-189.6E-06                  (X_U1.131)   15.0000                      

(X_U1.141)  -15.0000                  (X_U2.104)-5.947E-06                      

(X_U2.105)-5.947E-06                  (X_U2.131)   15.0000                      

(X_U2.141)  -15.0000                  (X_U3.104) 450.4E-06                      

(X_U3.105) 450.4E-06                  (X_U3.131)   15.0000                      

(X_U3.141)  -15.0000                  




    VOLTAGE SOURCE CURRENTS
    NAME         CURRENT

    V_V2        -3.599E-01
    V_V3        -3.669E-01
    V_V1         0.000E+00
    X_U4.VB     -3.261E-10
    X_U4.VC      1.263E-11
    X_U4.VE      1.297E-11
    X_U4.VLIM    2.036E-04
    X_U4.VLP    -2.480E-11
    X_U4.VLN    -2.520E-11
    X_U1.VC      1.136E-11
    X_U1.VE      1.136E-11
    X_U2.VC      1.136E-11
    X_U2.VE      1.136E-11
    X_U3.VC      1.119E-11
    X_U3.VE      1.153E-11

    TOTAL POWER DISSIPATION   1.09E+01  WATTS

 NODE   VOLTAGE     NODE   VOLTAGE     NODE   VOLTAGE     NODE   VOLTAGE


(   IN)    0.0000  (  MID) 441.4E-06  (  OUT)     .2153  ( +VPS)   15.0000      

( -VPS)  -15.0000  (N15025) 3.874E-06 (N15178)-15.71E-06 (N16109)     .1692     

(N16306)     .1692 (N16344)    -.5588 (N16407)     .8962 (N27455)-179.8E-06     

(N27593) 14.19E-06 (N28627)-199.4E-06 (N30286) 461.0E-06 (N45122)     .0556     

(X_U1.1) 14.22E-06 (X_U1.8)-762.4E-12 (X_U2.1) 441.4E-06 (X_U2.8)-21.11E-09     

(X_U3.1)     .1692 (X_U3.8)-8.016E-06 (X_U4.6)-32.67E-06 (X_U4.7)     .1999     

(X_U4.8)     .1999 (X_U4.9)    0.0000 (X_U1.10)    -.6819                       

(X_U1.11)    -.6819                   (X_U1.12)    -.6720                       

(X_U1.13)    3.6394                   (X_U1.14)   -3.6394                       

(X_U1.18) 664.7E-09                   (X_U1.20) 1.329E-15                       

(X_U1.60)  -15.0000                   (X_U1.70)   15.0000                       

(X_U1.80)   14.9840                   (X_U1.90)   14.9840                       

(X_U1.91)   14.9840                   (X_U1.98)-762.4E-12                       

(X_U2.10)    -.6818                   (X_U2.11)    -.6818                       

(X_U2.12)    -.6719                   (X_U2.13)    3.6398                       

(X_U2.14)   -3.6390                   (X_U2.18) 1.502E-06                       

(X_U2.20) 3.004E-15                   (X_U2.60)  -15.0000                       

(X_U2.70)   15.0000                   (X_U2.80)   14.9840                       

(X_U2.90)   14.9840                   (X_U2.91)   14.9840                       

(X_U2.98)-21.11E-09                   (X_U3.10)    -.6813                       

(X_U3.11)    -.6813                   (X_U3.12)    -.6714                       

(X_U3.13)    3.8086                   (X_U3.14)   -3.4702                       

(X_U3.18) 13.98E-06                   (X_U3.20) 27.96E-15                       

(X_U3.60)  -15.0000                   (X_U3.70)   15.0000                       

(X_U3.80)   14.9840                   (X_U3.90)   14.9840                       

(X_U3.91)   14.9840                   (X_U3.98)-8.016E-06                       

(X_U4.10)    -.2296                   (X_U4.11)  -14.6550                       

(X_U4.12)  -14.6550                   (X_U4.53)   12.8000                       

(X_U4.54)  -12.8000                   (X_U4.90)     .2043                       

(X_U4.91)   25.0000                   (X_U4.92)  -25.0000                       

(X_U4.99)    0.0000                   (X_U1.104)-189.6E-06                      

(X_U1.105)-189.6E-06                  (X_U1.131)   15.0000                      

(X_U1.141)  -15.0000                  (X_U2.104)-5.917E-06                      

(X_U2.105)-5.917E-06                  (X_U2.131)   15.0000                      

(X_U2.141)  -15.0000                  (X_U3.104) 451.2E-06                      

(X_U3.105) 451.2E-06                  (X_U3.131)   15.0000                      

(X_U3.141)  -15.0000                  




    VOLTAGE SOURCE CURRENTS
    NAME         CURRENT

    V_V2        -3.599E-01
    V_V3        -3.669E-01
    V_V1         0.000E+00
    X_U4.VB     -3.267E-10
    X_U4.VC      1.263E-11
    X_U4.VE      1.297E-11
    X_U4.VLIM    2.043E-04
    X_U4.VLP    -2.480E-11
    X_U4.VLN    -2.521E-11
    X_U1.VC      1.136E-11
    X_U1.VE      1.136E-11
    X_U2.VC      1.136E-11
    X_U2.VE      1.136E-11
    X_U3.VC      1.119E-11
    X_U3.VE      1.153E-11

    TOTAL POWER DISSIPATION   1.09E+01  WATTS

 NODE   VOLTAGE     NODE   VOLTAGE     NODE   VOLTAGE     NODE   VOLTAGE


(   IN)    0.0000  (  MID) 441.0E-06  (  OUT)     .2151  ( +VPS)   15.0000      

( -VPS)  -15.0000  (N15025) 3.874E-06 (N15178)-15.71E-06 (N16109)     .1691     

(N16306)     .1691 (N16344)    -.5590 (N16407)     .8960 (N27455)-179.8E-06     

(N27593) 14.19E-06 (N28627)-199.4E-06 (N30286) 460.5E-06 (N45122)     .0555     

(X_U1.1) 14.22E-06 (X_U1.8)-762.4E-12 (X_U2.1) 441.0E-06 (X_U2.8)-21.05E-09     

(X_U3.1)     .1691 (X_U3.8)-8.009E-06 (X_U4.6)-33.28E-06 (X_U4.7)     .2019     

(X_U4.8)     .2019 (X_U4.9)    0.0000 (X_U1.10)    -.6819                       

(X_U1.11)    -.6819                   (X_U1.12)    -.6720                       

(X_U1.13)    3.6394                   (X_U1.14)   -3.6394                       

(X_U1.18) 664.7E-09                   (X_U1.20) 1.329E-15                       

(X_U1.60)  -15.0000                   (X_U1.70)   15.0000                       

(X_U1.80)   14.9840                   (X_U1.90)   14.9840                       

(X_U1.91)   14.9840                   (X_U1.98)-762.4E-12                       

(X_U2.10)    -.6818                   (X_U2.11)    -.6818                       

(X_U2.12)    -.6719                   (X_U2.13)    3.6398                       

(X_U2.14)   -3.6390                   (X_U2.18) 1.254E-06                       

(X_U2.20) 2.508E-15                   (X_U2.60)  -15.0000                       

(X_U2.70)   15.0000                   (X_U2.80)   14.9840                       

(X_U2.90)   14.9840                   (X_U2.91)   14.9840                       

(X_U2.98)-21.05E-09                   (X_U3.10)    -.6813                       

(X_U3.11)    -.6813                   (X_U3.12)    -.6714                       

(X_U3.13)    3.8085                   (X_U3.14)   -3.4703                       

(X_U3.18) 13.97E-06                   (X_U3.20) 27.93E-15                       

(X_U3.60)  -15.0000                   (X_U3.70)   15.0000                       

(X_U3.80)   14.9840                   (X_U3.90)   14.9840                       

(X_U3.91)   14.9840                   (X_U3.98)-8.009E-06                       

(X_U4.10)    -.2298                   (X_U4.11)  -14.6550                       

(X_U4.12)  -14.6550                   (X_U4.53)   12.8000                       

(X_U4.54)  -12.8000                   (X_U4.90)     .2190                       

(X_U4.91)   25.0000                   (X_U4.92)  -25.0000                       

(X_U4.99)    0.0000                   (X_U1.104)-189.6E-06                      

(X_U1.105)-189.6E-06                  (X_U1.131)   15.0000                      

(X_U1.141)  -15.0000                  (X_U2.104)-5.917E-06                      

(X_U2.105)-5.917E-06                  (X_U2.131)   15.0000                      

(X_U2.141)  -15.0000                  (X_U3.104) 450.7E-06                      

(X_U3.105) 450.7E-06                  (X_U3.131)   15.0000                      

(X_U3.141)  -15.0000                  




    VOLTAGE SOURCE CURRENTS
    NAME         CURRENT

    V_V2        -3.597E-01
    V_V3        -3.667E-01
    V_V1         0.000E+00
    X_U4.VB     -3.328E-10
    X_U4.VC      1.263E-11
    X_U4.VE      1.297E-11
    X_U4.VLIM    2.190E-04
    X_U4.VLP    -2.478E-11
    X_U4.VLN    -2.522E-11
    X_U1.VC      1.136E-11
    X_U1.VE      1.136E-11
    X_U2.VC      1.136E-11
    X_U2.VE      1.136E-11
    X_U3.VC      1.119E-11
    X_U3.VE      1.153E-11

    TOTAL POWER DISSIPATION   1.09E+01  WATTS

 NODE   VOLTAGE     NODE   VOLTAGE     NODE   VOLTAGE     NODE   VOLTAGE


(   IN)    0.0000  (  MID) 441.0E-06  (  OUT)     .2152  ( +VPS)   15.0000      

( -VPS)  -15.0000  (N15025) 3.874E-06 (N15178)-15.71E-06 (N16109)     .1691     

(N16306)     .1691 (N16344)    -.5589 (N16407)     .8961 (N27455)-179.8E-06     

(N27593) 14.19E-06 (N28627)-199.4E-06 (N30286) 460.5E-06 (N45122)     .0555     

(X_U1.1) 14.22E-06 (X_U1.8)-762.4E-12 (X_U2.1) 441.0E-06 (X_U2.8)-21.13E-09     

(X_U3.1)     .1691 (X_U3.8)-8.009E-06 (X_U4.6)-32.07E-06 (X_U4.7)     .1977     

(X_U4.8)     .1977 (X_U4.9)    0.0000 (X_U1.10)    -.6819                       

(X_U1.11)    -.6819                   (X_U1.12)    -.6720                       

(X_U1.13)    3.6394                   (X_U1.14)   -3.6394                       

(X_U1.18) 664.7E-09                   (X_U1.20) 1.329E-15                       

(X_U1.60)  -15.0000                   (X_U1.70)   15.0000                       

(X_U1.80)   14.9840                   (X_U1.90)   14.9840                       

(X_U1.91)   14.9840                   (X_U1.98)-762.4E-12                       

(X_U2.10)    -.6818                   (X_U2.11)    -.6818                       

(X_U2.12)    -.6719                   (X_U2.13)    3.6398                       

(X_U2.14)   -3.6390                   (X_U2.18) 1.853E-06                       

(X_U2.20) 3.705E-15                   (X_U2.60)  -15.0000                       

(X_U2.70)   15.0000                   (X_U2.80)   14.9840                       

(X_U2.90)   14.9840                   (X_U2.91)   14.9840                       

(X_U2.98)-21.13E-09                   (X_U3.10)    -.6813                       

(X_U3.11)    -.6813                   (X_U3.12)    -.6714                       

(X_U3.13)    3.8085                   (X_U3.14)   -3.4703                       

(X_U3.18) 13.97E-06                   (X_U3.20) 27.93E-15                       

(X_U3.60)  -15.0000                   (X_U3.70)   15.0000                       

(X_U3.80)   14.9840                   (X_U3.90)   14.9840                       

(X_U3.91)   14.9840                   (X_U3.98)-8.009E-06                       

(X_U4.10)    -.2298                   (X_U4.11)  -14.6550                       

(X_U4.12)  -14.6550                   (X_U4.53)   12.8000                       

(X_U4.54)  -12.8000                   (X_U4.90)     .1906                       

(X_U4.91)   25.0000                   (X_U4.92)  -25.0000                       

(X_U4.99)    0.0000                   (X_U1.104)-189.6E-06                      

(X_U1.105)-189.6E-06                  (X_U1.131)   15.0000                      

(X_U1.141)  -15.0000                  (X_U2.104)-5.917E-06                      

(X_U2.105)-5.917E-06                  (X_U2.131)   15.0000                      

(X_U2.141)  -15.0000                  (X_U3.104) 450.7E-06                      

(X_U3.105) 450.7E-06                  (X_U3.131)   15.0000                      

(X_U3.141)  -15.0000                  




    VOLTAGE SOURCE CURRENTS
    NAME         CURRENT

    V_V2        -3.597E-01
    V_V3        -3.667E-01
    V_V1         0.000E+00
    X_U4.VB     -3.207E-10
    X_U4.VC      1.263E-11
    X_U4.VE      1.297E-11
    X_U4.VLIM    1.906E-04
    X_U4.VLP    -2.481E-11
    X_U4.VLN    -2.519E-11
    X_U1.VC      1.136E-11
    X_U1.VE      1.136E-11
    X_U2.VC      1.136E-11
    X_U2.VE      1.136E-11
    X_U3.VC      1.119E-11
    X_U3.VE      1.153E-11

    TOTAL POWER DISSIPATION   1.09E+01  WATTS

 NODE   VOLTAGE     NODE   VOLTAGE     NODE   VOLTAGE     NODE   VOLTAGE


(   IN)    0.0000  (  MID) 441.0E-06  (  OUT)     .2152  ( +VPS)   15.0000      

( -VPS)  -15.0000  (N15025) 3.874E-06 (N15178)-15.71E-06 (N16109)     .1691     

(N16306)     .1691 (N16344)    -.5590 (N16407)     .8961 (N27455)-179.8E-06     

(N27593) 14.19E-06 (N28627)-199.4E-06 (N30286) 460.5E-06 (N45122)     .0555     

(X_U1.1) 14.22E-06 (X_U1.8)-762.4E-12 (X_U2.1) 441.0E-06 (X_U2.8)-21.13E-09     

(X_U3.1)     .1691 (X_U3.8)-8.009E-06 (X_U4.6)-32.63E-06 (X_U4.7)     .1997     

(X_U4.8)     .1997 (X_U4.9)    0.0000 (X_U1.10)    -.6819                       

(X_U1.11)    -.6819                   (X_U1.12)    -.6720                       

(X_U1.13)    3.6394                   (X_U1.14)   -3.6394                       

(X_U1.18) 664.7E-09                   (X_U1.20) 1.329E-15                       

(X_U1.60)  -15.0000                   (X_U1.70)   15.0000                       

(X_U1.80)   14.9840                   (X_U1.90)   14.9840                       

(X_U1.91)   14.9840                   (X_U1.98)-762.4E-12                       

(X_U2.10)    -.6818                   (X_U2.11)    -.6818                       

(X_U2.12)    -.6719                   (X_U2.13)    3.6398                       

(X_U2.14)   -3.6390                   (X_U2.18) 1.827E-06                       

(X_U2.20) 3.653E-15                   (X_U2.60)  -15.0000                       

(X_U2.70)   15.0000                   (X_U2.80)   14.9840                       

(X_U2.90)   14.9840                   (X_U2.91)   14.9840                       

(X_U2.98)-21.13E-09                   (X_U3.10)    -.6813                       

(X_U3.11)    -.6813                   (X_U3.12)    -.6714                       

(X_U3.13)    3.8085                   (X_U3.14)   -3.4703                       

(X_U3.18) 13.97E-06                   (X_U3.20) 27.93E-15                       

(X_U3.60)  -15.0000                   (X_U3.70)   15.0000                       

(X_U3.80)   14.9840                   (X_U3.90)   14.9840                       

(X_U3.91)   14.9840                   (X_U3.98)-8.009E-06                       

(X_U4.10)    -.2298                   (X_U4.11)  -14.6550                       

(X_U4.12)  -14.6550                   (X_U4.53)   12.8000                       

(X_U4.54)  -12.8000                   (X_U4.90)     .2038                       

(X_U4.91)   25.0000                   (X_U4.92)  -25.0000                       

(X_U4.99)    0.0000                   (X_U1.104)-189.6E-06                      

(X_U1.105)-189.6E-06                  (X_U1.131)   15.0000                      

(X_U1.141)  -15.0000                  (X_U2.104)-5.917E-06                      

(X_U2.105)-5.917E-06                  (X_U2.131)   15.0000                      

(X_U2.141)  -15.0000                  (X_U3.104) 450.7E-06                      

(X_U3.105) 450.7E-06                  (X_U3.131)   15.0000                      

(X_U3.141)  -15.0000                  




    VOLTAGE SOURCE CURRENTS
    NAME         CURRENT

    V_V2        -3.599E-01
    V_V3        -3.669E-01
    V_V1         0.000E+00
    X_U4.VB     -3.263E-10
    X_U4.VC      1.263E-11
    X_U4.VE      1.297E-11
    X_U4.VLIM    2.038E-04
    X_U4.VLP    -2.480E-11
    X_U4.VLN    -2.520E-11
    X_U1.VC      1.136E-11
    X_U1.VE      1.136E-11
    X_U2.VC      1.136E-11
    X_U2.VE      1.136E-11
    X_U3.VC      1.119E-11
    X_U3.VE      1.153E-11

    TOTAL POWER DISSIPATION   1.09E+01  WATTS

 NODE   VOLTAGE     NODE   VOLTAGE     NODE   VOLTAGE     NODE   VOLTAGE


(   IN)    0.0000  (  MID) 440.9E-06  (  OUT)     .2152  ( +VPS)   15.0000      

( -VPS)  -15.0000  (N15025) 3.874E-06 (N15178)-15.71E-06 (N16109)     .1691     

(N16306)     .1691 (N16344)    -.5590 (N16407)     .8960 (N27455)-179.8E-06     

(N27593) 14.19E-06 (N28627)-199.4E-06 (N30286) 460.5E-06 (N45122)     .0555     

(X_U1.1) 14.22E-06 (X_U1.8)-762.4E-12 (X_U2.1) 441.0E-06 (X_U2.8)-21.14E-09     

(X_U3.1)     .1691 (X_U3.8)-8.008E-06 (X_U4.6)-32.63E-06 (X_U4.7)     .1997     

(X_U4.8)     .1997 (X_U4.9)    0.0000 (X_U1.10)    -.6819                       

(X_U1.11)    -.6819                   (X_U1.12)    -.6720                       

(X_U1.13)    3.6394                   (X_U1.14)   -3.6394                       

(X_U1.18) 664.7E-09                   (X_U1.20) 1.329E-15                       

(X_U1.60)  -15.0000                   (X_U1.70)   15.0000                       

(X_U1.80)   14.9840                   (X_U1.90)   14.9840                       

(X_U1.91)   14.9840                   (X_U1.98)-762.4E-12                       

(X_U2.10)    -.6818                   (X_U2.11)    -.6818                       

(X_U2.12)    -.6719                   (X_U2.13)    3.6398                       

(X_U2.14)   -3.6390                   (X_U2.18) 1.921E-06                       

(X_U2.20) 3.842E-15                   (X_U2.60)  -15.0000                       

(X_U2.70)   15.0000                   (X_U2.80)   14.9840                       

(X_U2.90)   14.9840                   (X_U2.91)   14.9840                       

(X_U2.98)-21.14E-09                   (X_U3.10)    -.6813                       

(X_U3.11)    -.6813                   (X_U3.12)    -.6714                       

(X_U3.13)    3.8085                   (X_U3.14)   -3.4703                       

(X_U3.18) 13.97E-06                   (X_U3.20) 27.93E-15                       

(X_U3.60)  -15.0000                   (X_U3.70)   15.0000                       

(X_U3.80)   14.9840                   (X_U3.90)   14.9840                       

(X_U3.91)   14.9840                   (X_U3.98)-8.008E-06                       

(X_U4.10)    -.2298                   (X_U4.11)  -14.6550                       

(X_U4.12)  -14.6550                   (X_U4.53)   12.8000                       

(X_U4.54)  -12.8000                   (X_U4.90)     .2039                       

(X_U4.91)   25.0000                   (X_U4.92)  -25.0000                       

(X_U4.99)    0.0000                   (X_U1.104)-189.6E-06                      

(X_U1.105)-189.6E-06                  (X_U1.131)   15.0000                      

(X_U1.141)  -15.0000                  (X_U2.104)-5.917E-06                      

(X_U2.105)-5.917E-06                  (X_U2.131)   15.0000                      

(X_U2.141)  -15.0000                  (X_U3.104) 450.7E-06                      

(X_U3.105) 450.7E-06                  (X_U3.131)   15.0000                      

(X_U3.141)  -15.0000                  




    VOLTAGE SOURCE CURRENTS
    NAME         CURRENT

    V_V2        -3.599E-01
    V_V3        -3.669E-01
    V_V1         0.000E+00
    X_U4.VB     -3.263E-10
    X_U4.VC      1.263E-11
    X_U4.VE      1.297E-11
    X_U4.VLIM    2.039E-04
    X_U4.VLP    -2.480E-11
    X_U4.VLN    -2.520E-11
    X_U1.VC      1.136E-11
    X_U1.VE      1.136E-11
    X_U2.VC      1.136E-11
    X_U2.VE      1.136E-11
    X_U3.VC      1.119E-11
    X_U3.VE      1.153E-11

    TOTAL POWER DISSIPATION   1.09E+01  WATTS

 NODE   VOLTAGE     NODE   VOLTAGE     NODE   VOLTAGE     NODE   VOLTAGE


(   IN)    0.0000  (  MID) 460.7E-06  (  OUT)     .2218  ( +VPS)   15.0000      

( -VPS)  -15.0000  (N15025) 5.670E-06 (N15178)-13.91E-06 (N16109)     .1758     

(N16306)     .1758 (N16344)    -.5523 (N16407)     .9027 (N27455)-179.8E-06     

(N27593) 15.99E-06 (N28627)-199.4E-06 (N30286) 480.3E-06 (N45122)     .0577     

(X_U1.1) 16.01E-06 (X_U1.8)-847.6E-12 (X_U2.1) 460.7E-06 (X_U2.8)-21.95E-09     

(X_U3.1)     .1758 (X_U3.8)-8.325E-06 (X_U4.6)-34.29E-06 (X_U4.7)     .2088     

(X_U4.8)     .2088 (X_U4.9)    0.0000 (X_U1.10)    -.6819                       

(X_U1.11)    -.6819                   (X_U1.12)    -.6720                       

(X_U1.13)    3.6394                   (X_U1.14)   -3.6394                       

(X_U1.18) 665.7E-09                   (X_U1.20) 1.331E-15                       

(X_U1.60)  -15.0000                   (X_U1.70)   15.0000                       

(X_U1.80)   14.9840                   (X_U1.90)   14.9840                       

(X_U1.91)   14.9840                   (X_U1.98)-847.6E-12                       

(X_U2.10)    -.6818                   (X_U2.11)    -.6818                       

(X_U2.12)    -.6718                   (X_U2.13)    3.6399                       

(X_U2.14)   -3.6389                   (X_U2.18) 1.018E-06                       

(X_U2.20) 2.036E-15                   (X_U2.60)  -15.0000                       

(X_U2.70)   15.0000                   (X_U2.80)   14.9840                       

(X_U2.90)   14.9840                   (X_U2.91)   14.9840                       

(X_U2.98)-21.95E-09                   (X_U3.10)    -.6813                       

(X_U3.11)    -.6813                   (X_U3.12)    -.6714                       

(X_U3.13)    3.8152                   (X_U3.14)   -3.4636                       

(X_U3.18) 14.52E-06                   (X_U3.20) 29.04E-15                       

(X_U3.60)  -15.0000                   (X_U3.70)   15.0000                       

(X_U3.80)   14.9840                   (X_U3.90)   14.9840                       

(X_U3.91)   14.9840                   (X_U3.98)-8.325E-06                       

(X_U4.10)    -.2231                   (X_U4.11)  -14.6550                       

(X_U4.12)  -14.6550                   (X_U4.53)   12.8000                       

(X_U4.54)  -12.8000                   (X_U4.90)     .2204                       

(X_U4.91)   25.0000                   (X_U4.92)  -25.0000                       

(X_U4.99)    0.0000                   (X_U1.104)-189.6E-06                      

(X_U1.105)-189.6E-06                  (X_U1.131)   15.0000                      

(X_U1.141)  -15.0000                  (X_U2.104)-4.121E-06                      

(X_U2.105)-4.121E-06                  (X_U2.131)   15.0000                      

(X_U2.141)  -15.0000                  (X_U3.104) 470.5E-06                      

(X_U3.105) 470.5E-06                  (X_U3.131)   15.0000                      

(X_U3.141)  -15.0000                  




    VOLTAGE SOURCE CURRENTS
    NAME         CURRENT

    V_V2        -3.598E-01
    V_V3        -3.670E-01
    V_V1         0.000E+00
    X_U4.VB     -3.429E-10
    X_U4.VC      1.263E-11
    X_U4.VE      1.298E-11
    X_U4.VLIM    2.204E-04
    X_U4.VLP    -2.478E-11
    X_U4.VLN    -2.522E-11
    X_U1.VC      1.136E-11
    X_U1.VE      1.136E-11
    X_U2.VC      1.136E-11
    X_U2.VE      1.136E-11
    X_U3.VC      1.118E-11
    X_U3.VE      1.154E-11

    TOTAL POWER DISSIPATION   1.09E+01  WATTS

 NODE   VOLTAGE     NODE   VOLTAGE     NODE   VOLTAGE     NODE   VOLTAGE


(   IN)    0.0000  (  MID) 443.1E-06  (  OUT)     .2159  ( +VPS)   15.0000      

( -VPS)  -15.0000  (N15025) 4.068E-06 (N15178)-15.52E-06 (N16109)     .1698     

(N16306)     .1698 (N16344)    -.5583 (N16407)     .8968 (N27455)-179.8E-06     

(N27593) 14.39E-06 (N28627)-199.4E-06 (N30286) 462.7E-06 (N45122)     .0557     

(X_U1.1) 14.41E-06 (X_U1.8)-771.6E-12 (X_U2.1) 443.2E-06 (X_U2.8)-21.24E-09     

(X_U3.1)     .1698 (X_U3.8)-8.043E-06 (X_U4.6)-32.81E-06 (X_U4.7)     .2007     

(X_U4.8)     .2007 (X_U4.9)    0.0000 (X_U1.10)    -.6819                       

(X_U1.11)    -.6819                   (X_U1.12)    -.6720                       

(X_U1.13)    3.6394                   (X_U1.14)   -3.6394                       

(X_U1.18) 664.7E-09                   (X_U1.20) 1.329E-15                       

(X_U1.60)  -15.0000                   (X_U1.70)   15.0000                       

(X_U1.80)   14.9840                   (X_U1.90)   14.9840                       

(X_U1.91)   14.9840                   (X_U1.98)-771.6E-12                       

(X_U2.10)    -.6818                   (X_U2.11)    -.6818                       

(X_U2.12)    -.6719                   (X_U2.13)    3.6398                       

(X_U2.14)   -3.6390                   (X_U2.18) 1.898E-06                       

(X_U2.20) 3.796E-15                   (X_U2.60)  -15.0000                       

(X_U2.70)   15.0000                   (X_U2.80)   14.9840                       

(X_U2.90)   14.9840                   (X_U2.91)   14.9840                       

(X_U2.98)-21.24E-09                   (X_U3.10)    -.6813                       

(X_U3.11)    -.6813                   (X_U3.12)    -.6714                       

(X_U3.13)    3.8092                   (X_U3.14)   -3.4696                       

(X_U3.18) 14.03E-06                   (X_U3.20) 28.05E-15                       

(X_U3.60)  -15.0000                   (X_U3.70)   15.0000                       

(X_U3.80)   14.9840                   (X_U3.90)   14.9840                       

(X_U3.91)   14.9840                   (X_U3.98)-8.043E-06                       

(X_U4.10)    -.2290                   (X_U4.11)  -14.6550                       

(X_U4.12)  -14.6550                   (X_U4.53)   12.8000                       

(X_U4.54)  -12.8000                   (X_U4.90)     .2057                       

(X_U4.91)   25.0000                   (X_U4.92)  -25.0000                       

(X_U4.99)    0.0000                   (X_U1.104)-189.6E-06                      

(X_U1.105)-189.6E-06                  (X_U1.131)   15.0000                      

(X_U1.141)  -15.0000                  (X_U2.104)-5.723E-06                      

(X_U2.105)-5.723E-06                  (X_U2.131)   15.0000                      

(X_U2.141)  -15.0000                  (X_U3.104) 452.9E-06                      

(X_U3.105) 452.9E-06                  (X_U3.131)   15.0000                      

(X_U3.141)  -15.0000                  




    VOLTAGE SOURCE CURRENTS
    NAME         CURRENT

    V_V2        -3.599E-01
    V_V3        -3.669E-01
    V_V1         0.000E+00
    X_U4.VB     -3.281E-10
    X_U4.VC      1.263E-11
    X_U4.VE      1.297E-11
    X_U4.VLIM    2.057E-04
    X_U4.VLP    -2.480E-11
    X_U4.VLN    -2.521E-11
    X_U1.VC      1.136E-11
    X_U1.VE      1.136E-11
    X_U2.VC      1.136E-11
    X_U2.VE      1.136E-11
    X_U3.VC      1.119E-11
    X_U3.VE      1.153E-11

    TOTAL POWER DISSIPATION   1.09E+01  WATTS

 NODE   VOLTAGE     NODE   VOLTAGE     NODE   VOLTAGE     NODE   VOLTAGE


(   IN)    0.0000  (  MID) 416.8E-06  (  OUT)     .2071  ( +VPS)   15.0000      

( -VPS)  -15.0000  (N15025) 1.682E-06 (N15178)-17.90E-06 (N16109)     .1609     

(N16306)     .1609 (N16344)    -.5671 (N16407)     .8880 (N27455)-180.0E-06     

(N27593) 12.00E-06 (N28627)-199.6E-06 (N30286) 436.4E-06 (N45122)     .0528     

(X_U1.1) 12.03E-06 (X_U1.8)-658.4E-12 (X_U2.1) 416.9E-06 (X_U2.8)-19.93E-09     

(X_U3.1)     .1609 (X_U3.8)-7.623E-06 (X_U4.6)-30.62E-06 (X_U4.7)     .1885     

(X_U4.8)     .1885 (X_U4.9)    0.0000 (X_U1.10)    -.6819                       

(X_U1.11)    -.6819                   (X_U1.12)    -.6720                       

(X_U1.13)    3.6394                   (X_U1.14)   -3.6394                       

(X_U1.18) 663.6E-09                   (X_U1.20) 1.327E-15                       

(X_U1.60)  -15.0000                   (X_U1.70)   15.0000                       

(X_U1.80)   14.9840                   (X_U1.90)   14.9840                       

(X_U1.91)   14.9840                   (X_U1.98)-658.4E-12                       

(X_U2.10)    -.6818                   (X_U2.11)    -.6818                       

(X_U2.12)    -.6719                   (X_U2.13)    3.6398                       

(X_U2.14)   -3.6390                   (X_U2.18) 1.434E-06                       

(X_U2.20) 2.868E-15                   (X_U2.60)  -15.0000                       

(X_U2.70)   15.0000                   (X_U2.80)   14.9840                       

(X_U2.90)   14.9840                   (X_U2.91)   14.9840                       

(X_U2.98)-19.93E-09                   (X_U3.10)    -.6813                       

(X_U3.11)    -.6813                   (X_U3.12)    -.6714                       

(X_U3.13)    3.8003                   (X_U3.14)   -3.4785                       

(X_U3.18) 13.29E-06                   (X_U3.20) 26.59E-15                       

(X_U3.60)  -15.0000                   (X_U3.70)   15.0000                       

(X_U3.80)   14.9840                   (X_U3.90)   14.9840                       

(X_U3.91)   14.9840                   (X_U3.98)-7.623E-06                       

(X_U4.10)    -.2379                   (X_U4.11)  -14.6550                       

(X_U4.12)  -14.6550                   (X_U4.53)   12.8000                       

(X_U4.54)  -12.8000                   (X_U4.90)     .1838                       

(X_U4.91)   25.0000                   (X_U4.92)  -25.0000                       

(X_U4.99)    0.0000                   (X_U1.104)-189.8E-06                      

(X_U1.105)-189.8E-06                  (X_U1.131)   15.0000                      

(X_U1.141)  -15.0000                  (X_U2.104)-8.110E-06                      

(X_U2.105)-8.110E-06                  (X_U2.131)   15.0000                      

(X_U2.141)  -15.0000                  (X_U3.104) 426.6E-06                      

(X_U3.105) 426.6E-06                  (X_U3.131)   15.0000                      

(X_U3.141)  -15.0000                  




    VOLTAGE SOURCE CURRENTS
    NAME         CURRENT

    V_V2        -3.600E-01
    V_V3        -3.667E-01
    V_V1         0.000E+00
    X_U4.VB     -3.062E-10
    X_U4.VC      1.264E-11
    X_U4.VE      1.296E-11
    X_U4.VLIM    1.838E-04
    X_U4.VLP    -2.482E-11
    X_U4.VLN    -2.518E-11
    X_U1.VC      1.136E-11
    X_U1.VE      1.136E-11
    X_U2.VC      1.136E-11
    X_U2.VE      1.136E-11
    X_U3.VC      1.120E-11
    X_U3.VE      1.152E-11

    TOTAL POWER DISSIPATION   1.09E+01  WATTS

 NODE   VOLTAGE     NODE   VOLTAGE     NODE   VOLTAGE     NODE   VOLTAGE


(   IN)    0.0000  (  MID) 441.0E-06  (  OUT)     .2150  ( +VPS)   15.0000      

( -VPS)  -15.0000  (N15025) 3.874E-06 (N15178)-15.71E-06 (N16109)     .1689     

(N16306)     .1689 (N16344)    -.5591 (N16407)     .8959 (N27455)-179.8E-06     

(N27593) 14.19E-06 (N28627)-199.4E-06 (N30286) 460.5E-06 (N45122)     .0555     

(X_U1.1) 14.22E-06 (X_U1.8)-762.4E-12 (X_U2.1) 441.0E-06 (X_U2.8)-21.02E-09     

(X_U3.1)     .1689 (X_U3.8)-8.001E-06 (X_U4.6)-32.60E-06 (X_U4.7)     .1995     

(X_U4.8)     .1995 (X_U4.9)    0.0000 (X_U1.10)    -.6819                       

(X_U1.11)    -.6819                   (X_U1.12)    -.6720                       

(X_U1.13)    3.6394                   (X_U1.14)   -3.6394                       

(X_U1.18) 664.7E-09                   (X_U1.20) 1.329E-15                       

(X_U1.60)  -15.0000                   (X_U1.70)   15.0000                       

(X_U1.80)   14.9840                   (X_U1.90)   14.9840                       

(X_U1.91)   14.9840                   (X_U1.98)-762.4E-12                       

(X_U2.10)    -.6818                   (X_U2.11)    -.6818                       

(X_U2.12)    -.6719                   (X_U2.13)    3.6398                       

(X_U2.14)   -3.6390                   (X_U2.18) 994.9E-09                       

(X_U2.20) 1.990E-15                   (X_U2.60)  -15.0000                       

(X_U2.70)   15.0000                   (X_U2.80)   14.9840                       

(X_U2.90)   14.9840                   (X_U2.91)   14.9840                       

(X_U2.98)-21.02E-09                   (X_U3.10)    -.6813                       

(X_U3.11)    -.6813                   (X_U3.12)    -.6714                       

(X_U3.13)    3.8083                   (X_U3.14)   -3.4705                       

(X_U3.18) 13.95E-06                   (X_U3.20) 27.91E-15                       

(X_U3.60)  -15.0000                   (X_U3.70)   15.0000                       

(X_U3.80)   14.9840                   (X_U3.90)   14.9840                       

(X_U3.91)   14.9840                   (X_U3.98)-8.001E-06                       

(X_U4.10)    -.2299                   (X_U4.11)  -14.6550                       

(X_U4.12)  -14.6550                   (X_U4.53)   12.8000                       

(X_U4.54)  -12.8000                   (X_U4.90)     .2035                       

(X_U4.91)   25.0000                   (X_U4.92)  -25.0000                       

(X_U4.99)    0.0000                   (X_U1.104)-189.6E-06                      

(X_U1.105)-189.6E-06                  (X_U1.131)   15.0000                      

(X_U1.141)  -15.0000                  (X_U2.104)-5.917E-06                      

(X_U2.105)-5.917E-06                  (X_U2.131)   15.0000                      

(X_U2.141)  -15.0000                  (X_U3.104) 450.7E-06                      

(X_U3.105) 450.7E-06                  (X_U3.131)   15.0000                      

(X_U3.141)  -15.0000                  




    VOLTAGE SOURCE CURRENTS
    NAME         CURRENT

    V_V2        -3.599E-01
    V_V3        -3.669E-01
    V_V1         0.000E+00
    X_U4.VB     -3.260E-10
    X_U4.VC      1.263E-11
    X_U4.VE      1.297E-11
    X_U4.VLIM    2.035E-04
    X_U4.VLP    -2.480E-11
    X_U4.VLN    -2.520E-11
    X_U1.VC      1.136E-11
    X_U1.VE      1.136E-11
    X_U2.VC      1.136E-11
    X_U2.VE      1.136E-11
    X_U3.VC      1.119E-11
    X_U3.VE      1.153E-11

    TOTAL POWER DISSIPATION   1.09E+01  WATTS



Mean Deviation =    -.1783
Sigma          =     .6469

 RUN                    MAX DEVIATION FROM NOMINAL

R_R1 R_R1 R              .8922  (1.38 sigma)  lower  at T =  333.1900E-06
                        (-116.01% change per 1% change in Model Parameter)

R_R7 R_R7 R              .7633  (1.18 sigma)  lower  at T =  457.3300E-06
                        (-104.84% change per 1% change in Model Parameter)

R_R6 R_R6 R              .7346  (1.14 sigma)  lower  at T =  205.6300E-06
                        (-112.47% change per 1% change in Model Parameter)

R_R9 R_R9 R              .7195  (1.11 sigma)  lower  at T =  456.7000E-06
                        ( -98.83 % change per 1% change in Model Parameter)

R_R2 R_R2 R              .709   (1.10 sigma)  lower  at T =  333.2500E-06
                        ( -92.19 % change per 1% change in Model Parameter)

R_R3 R_R3 R              .6323  ( .98 sigma)  lower  at T =  456.5200E-06
                        ( -86.845% change per 1% change in Model Parameter)

C_C2 C_C2 C              .6044  ( .93 sigma)  lower  at T =  268.7300E-06
                        ( -89.3  % change per 1% change in Model Parameter)

R_R4 R_R4 R              .5846  ( .90 sigma)  higher  at T =  607.1200E-06
                        (-196.17% change per 1% change in Model Parameter)

R_ROUT R_ROUT R          .584   ( .90 sigma)  higher  at T =  607.1400E-06
                        (-195.96% change per 1% change in Model Parameter)

C_C1 C_C1 C              .5839  ( .90 sigma)  higher  at T =  607.1500E-06
                        (-195.94% change per 1% change in Model Parameter)

R_R10 R_R10 R            .5817  ( .90 sigma)  higher  at T =  607.1400E-06
                        (-195.21% change per 1% change in Model Parameter)

R_R5 R_R5 R              .581   ( .90 sigma)  higher  at T =  607.1100E-06
                        (-194.96% change per 1% change in Model Parameter)


**** 05/19/23 12:32:02 **** PSpice 22.1.0 (6 October 2022) **** ID# 0 ********

 ** Profile: "SCHEMATIC1-sim1"  [ d:\cad\deadline 3\proiect cad-pspicefiles\schematic1\sim1.sim ] 


 ****     INITIAL TRANSIENT SOLUTION       TEMPERATURE =   27.000 DEG C

                      WORST CASE ALL DEVICES

******************************************************************************



 NODE   VOLTAGE     NODE   VOLTAGE     NODE   VOLTAGE     NODE   VOLTAGE


(   IN)    0.0000  (  MID) 458.3E-06  (  OUT)     .2241  ( +VPS)   15.0000      

( -VPS)  -15.0000  (N15025) 6.404E-06 (N15178)-13.18E-06 (N16109)     .1766     

(N16306)     .1766 (N16344)    -.5500 (N16407)     .9050 (N27455)-175.8E-06     

(N27593) 18.22E-06 (N28627)-195.4E-06 (N30286) 477.9E-06 (N45122)     .0580     

(X_U1.1) 18.24E-06 (X_U1.8)-953.3E-12 (X_U2.1) 458.4E-06 (X_U2.8)-21.95E-09     

(X_U3.1)     .1766 (X_U3.8)-8.363E-06 (X_U4.6)-10.26E-06 (X_U4.7)     .1247     

(X_U4.8)     .1247 (X_U4.9)    0.0000 (X_U1.10)    -.6819                       

(X_U1.11)    -.6819                   (X_U1.12)    -.6720                       

(X_U1.13)    3.6394                   (X_U1.14)   -3.6394                       

(X_U1.18) 666.9E-09                   (X_U1.20) 1.334E-15                       

(X_U1.60)  -15.0000                   (X_U1.70)   15.0000                       

(X_U1.80)   14.9840                   (X_U1.90)   14.9840                       

(X_U1.91)   14.9840                   (X_U1.98)-953.3E-12                       

(X_U2.10)    -.6818                   (X_U2.11)    -.6818                       

(X_U2.12)    -.6718                   (X_U2.13)    3.6399                       

(X_U2.14)   -3.6389                   (X_U2.18) 1.845E-06                       

(X_U2.20) 3.690E-15                   (X_U2.60)  -15.0000                       

(X_U2.70)   15.0000                   (X_U2.80)   14.9840                       

(X_U2.90)   14.9840                   (X_U2.91)   14.9840                       

(X_U2.98)-21.95E-09                   (X_U3.10)    -.6813                       

(X_U3.11)    -.6813                   (X_U3.12)    -.6714                       

(X_U3.13)    3.8160                   (X_U3.14)   -3.4628                       

(X_U3.18) 14.59E-06                   (X_U3.20) 29.17E-15                       

(X_U3.60)  -15.0000                   (X_U3.70)   15.0000                       

(X_U3.80)   14.9840                   (X_U3.90)   14.9840                       

(X_U3.91)   14.9840                   (X_U3.98)-8.363E-06                       

(X_U4.10)    -.2223                   (X_U4.11)  -14.6550                       

(X_U4.12)  -14.6550                   (X_U4.53)   12.8000                       

(X_U4.54)  -12.8000                   (X_U4.90)    -.3459                       

(X_U4.91)   25.0000                   (X_U4.92)  -25.0000                       

(X_U4.99)    0.0000                   (X_U1.104)-185.6E-06                      

(X_U1.105)-185.6E-06                  (X_U1.131)   15.0000                      

(X_U1.141)  -15.0000                  (X_U2.104)-3.388E-06                      

(X_U2.105)-3.388E-06                  (X_U2.131)   15.0000                      

(X_U2.141)  -15.0000                  (X_U3.104) 468.1E-06                      

(X_U3.105) 468.1E-06                  (X_U3.131)   15.0000                      

(X_U3.141)  -15.0000                  




    VOLTAGE SOURCE CURRENTS
    NAME         CURRENT

    V_V2        -3.596E-01
    V_V3        -3.673E-01
    V_V1         0.000E+00
    X_U4.VB     -1.026E-10
    X_U4.VC      1.262E-11
    X_U4.VE      1.298E-11
    X_U4.VLIM   -3.459E-04
    X_U4.VLP    -2.535E-11
    X_U4.VLN    -2.465E-11
    X_U1.VC      1.136E-11
    X_U1.VE      1.136E-11
    X_U2.VC      1.136E-11
    X_U2.VE      1.136E-11
    X_U3.VC      1.118E-11
    X_U3.VE      1.154E-11

    TOTAL POWER DISSIPATION   1.09E+01  WATTS


**** 05/19/23 12:32:02 **** PSpice 22.1.0 (6 October 2022) **** ID# 0 ********

 ** Profile: "SCHEMATIC1-sim1"  [ d:\cad\deadline 3\proiect cad-pspicefiles\schematic1\sim1.sim ] 


 ****     UPDATED MODEL PARAMETERS         TEMPERATURE =   27.000 DEG C

                      WORST CASE ALL DEVICES

******************************************************************************



Device       MODEL        PARAMETER    NEW VALUE    
C_C2         C_C2         C                .98          (Decreased)  
C_C1         C_C1         C               1.02          (Increased)  
R_R4         R_R4         R               1.05          (Increased)  
R_R6         R_R6         R                .98          (Decreased)  
R_R9         R_R9         R                .98          (Decreased)  
R_R10        R_R10        R               1.02          (Increased)  
R_Rout       R_Rout       R               1.01          (Increased)  
R_R5         R_R5         R               1.02          (Increased)  
R_R2         R_R2         R                .98          (Decreased)  
R_R3         R_R3         R                .98          (Decreased)  
R_R1         R_R1         R                .98          (Decreased)  
R_R7         R_R7         R                .99          (Decreased)  
    

**** 05/19/23 12:32:02 **** PSpice 22.1.0 (6 October 2022) **** ID# 0 ********

 ** Profile: "SCHEMATIC1-sim1"  [ d:\cad\deadline 3\proiect cad-pspicefiles\schematic1\sim1.sim ] 


 ****     SORTED DEVIATIONS OF V(OUT)      TEMPERATURE =   27.000 DEG C

                      WORST CASE SUMMARY

******************************************************************************





Mean Deviation =    1.3524
Sigma          =    0     

 RUN                    MAX DEVIATION FROM NOMINAL

WORST CASE ALL DEVICES
                        1.3524  higher  at T =  300.6400E-06
                        (  79.429% of Nominal)



          JOB CONCLUDED

**** 05/19/23 12:32:02 **** PSpice 22.1.0 (6 October 2022) **** ID# 0 ********

 ** Profile: "SCHEMATIC1-sim1"  [ d:\cad\deadline 3\proiect cad-pspicefiles\schematic1\sim1.sim ] 


 ****     JOB STATISTICS SUMMARY


******************************************************************************



  License check-out time            =      205.00
  Total job time (using Solver 1)   =        1.16
